
Spectre (R) Circuit Simulator
Version 21.1.0.546.isr13 64bit -- 4 Nov 2022
Copyright (C) 1989-2022 Cadence Design Systems, Inc. All rights reserved
        worldwide. Cadence and Spectre are registered trademarks of Cadence
        Design Systems, Inc. All others are the property of their respective
        holders.

Includes RSA BSAFE(R) Cryptographic or Security Protocol Software from RSA
        Security, Inc.

User: cmos   Host: pescad-12.pes.edu   HostID: 7F0100   PID: 70365
Memory  available: 28.7205 GB  physical: 33.2722 GB
Linux   : Red Hat Enterprise Linux release 8.7 (Ootpa)
CPU Type: Intel(R) Core(TM) i7-9700T CPU @ 2.00GHz
        Socket: Processors [Frequency]
        0:       0 [2000.0],  1 [2000.0],  2 [2000.0],  3 [2000.0],  4
        [3679.3]
                 5 [2000.0],  6 [2000.0],  7 [2000.0]
        
System load averages (1min, 5min, 15min) : 4.9 %, 4.2 %, 3.6 %


Simulating
        `/home/cmos/simulation/column_isource_tb/spectre/schematic/netlist/input.scs'
        on pescad-12.pes.edu at 10:53:58 AM, Fri Apr 24, 2026 (process id:
        70365).
Current working directory:
        /home/cmos/simulation/column_isource_tb/spectre/schematic
Command line:
    /home/install/SPECTRE211/tools.lnx86/bin/spectre -64  \
       
        /home/cmos/simulation/column_isource_tb/spectre/schematic/netlist/input.scs
Licensing Information:
[10:53:58.090545] Configured Lic search path (21.01-s002): 5280@10.3.32.9

Licensing Information:
[10:53:58.201913] Periodic Lic check successful

Reading file: 
        /home/cmos/simulation/column_isource_tb/spectre/schematic/netlist/input.scs
Reading file: 
        /home/install/SPECTRE211/tools.lnx86/spectre/etc/configs/spectre.cfg
Reading file: 
        /home/install/SCL180/SCLPDK_V3.0_KIT/scl180/pdk/cdns/sclpdk_v3/HOTCODE/models/ts18scl/v2.0/hspice/header.lib
Reading file: 
        /home/install/SCL180/SCLPDK_V3.0_KIT/scl180/pdk/cdns/sclpdk_v3/HOTCODE/models/ts18scl/v2.0/hspice/global.lib
Reading file: 
        /home/install/SCL180/SCLPDK_V3.0_KIT/scl180/pdk/cdns/sclpdk_v3/HOTCODE/models/ts18scl/v2.0/hspice/fet.lib
Reading file: 
        /home/install/SCL180/SCLPDK_V3.0_KIT/scl180/pdk/cdns/sclpdk_v3/HOTCODE/models/ts18scl/v2.0/hspice/ts18sl_scl.lib
Reading file: 
        /home/install/SCL180/SCLPDK_V3.0_KIT/scl180/pdk/cdns/sclpdk_v3/HOTCODE/models/ts18scl/v2.0/hspice/ts18sl_scl_2019.lib

Warning from spectre in `n18hvtb3', during circuit read-in.
    WARNING (SFE-1805):
        "/home/install/SCL180/SCLPDK_V3.0_KIT/scl180/pdk/cdns/sclpdk_v3/HOTCODE/models/ts18scl/v2.0/hspice/ts18sl_scl_2019.lib"
        393: .flat is not recognised as a valid SPICE control card.
Warning from spectre in `p18hvtb3', during circuit read-in.
    WARNING (SFE-1805):
        "/home/install/SCL180/SCLPDK_V3.0_KIT/scl180/pdk/cdns/sclpdk_v3/HOTCODE/models/ts18scl/v2.0/hspice/ts18sl_scl_2019.lib"
        649: .flat is not recognised as a valid SPICE control card.

Reading file: 
        /home/install/SCL180/SCLPDK_V3.0_KIT/scl180/pdk/cdns/sclpdk_v3/HOTCODE/models/ts18scl/v2.0/hspice/fethv.lib

Warning from spectre in `n5v', during circuit read-in.
    WARNING (SFE-1805):
        "/home/install/SCL180/SCLPDK_V3.0_KIT/scl180/pdk/cdns/sclpdk_v3/HOTCODE/models/ts18scl/v2.0/hspice/ts18sl_scl_2019.lib"
        1159: .flat is not recognised as a valid SPICE control card.
Warning from spectre in `p5v', during circuit read-in.
    WARNING (SFE-1805):
        "/home/install/SCL180/SCLPDK_V3.0_KIT/scl180/pdk/cdns/sclpdk_v3/HOTCODE/models/ts18scl/v2.0/hspice/ts18sl_scl_2019.lib"
        1416: .flat is not recognised as a valid SPICE control card.

Reading file: 
        /home/install/SCL180/SCLPDK_V3.0_KIT/scl180/pdk/cdns/sclpdk_v3/HOTCODE/models/ts18scl/v2.0/hspice/bjt.lib

Warning from spectre in `vd10', during circuit read-in.
    WARNING (SFE-1805):
        "/home/install/SCL180/SCLPDK_V3.0_KIT/scl180/pdk/cdns/sclpdk_v3/HOTCODE/models/ts18scl/v2.0/hspice/ts18sl_scl_2019.lib"
        1776: .flat is not recognised as a valid SPICE control card.
        Further occurrences of this warning will be suppressed.

Reading file: 
        /home/install/SCL180/SCLPDK_V3.0_KIT/scl180/pdk/cdns/sclpdk_v3/HOTCODE/models/ts18scl/v2.0/hspice/accap.lib
Reading file: 
        /home/install/SCL180/SCLPDK_V3.0_KIT/scl180/pdk/cdns/sclpdk_v3/HOTCODE/models/ts18scl/v2.0/hspice/mimcap.lib
Reading file: 
        /home/install/SCL180/SCLPDK_V3.0_KIT/scl180/pdk/cdns/sclpdk_v3/HOTCODE/models/ts18scl/v2.0/hspice/mfc.lib
Reading file: 
        /home/install/SCL180/SCLPDK_V3.0_KIT/scl180/pdk/cdns/sclpdk_v3/HOTCODE/models/ts18scl/v2.0/hspice/res.lib
Reading file: 
        /home/install/SCL180/SCLPDK_V3.0_KIT/scl180/pdk/cdns/sclpdk_v3/HOTCODE/models/ts18scl/v2.0/hspice/diode.lib
Reading file: 
        /home/install/SCL180/SCLPDK_V3.0_KIT/scl180/pdk/cdns/sclpdk_v3/HOTCODE/models/ts18scl/v2.0/hspice/nat.lib
Time for NDB Parsing: CPU = 79.435 ms, elapsed = 299.83 ms.
Time accumulated: CPU = 101.467 ms, elapsed = 299.832 ms.
Peak resident memory used = 146 Mbytes.


Warning from spectre during hierarchy flattening.
    WARNING (SFE-105):
        "/home/install/SCL180/SCLPDK_V3.0_KIT/scl180/pdk/cdns/sclpdk_v3/HOTCODE/models/ts18scl/v2.0/hspice/global.lib"
        6: `macmod' has been ignored because it is not an option. Correct the
        name and rerun the simulation. Type `spectre -h options' to get more
        information on valid option parameters.
Warning from spectre during hierarchy flattening.
    WARNING (SFE-32):
        "/home/install/SCL180/SCLPDK_V3.0_KIT/scl180/pdk/cdns/sclpdk_v3/HOTCODE/models/ts18scl/v2.0/hspice/ts18sl_scl.lib"
        1381: Duplicate specification for parameter `tnom' is overrided by
        `tref' (using last value specified).

Time for Elaboration: CPU = 14.406 ms, elapsed = 14.446 ms.
Time accumulated: CPU = 115.965 ms, elapsed = 314.369 ms.
Peak resident memory used = 154 Mbytes.


Notice from spectre during hierarchy flattening.
    The value 'psf' specified for the 'checklimitdest' option will no longer be
        supported in future releases. Use 'spectre -h' to see other recommended
        values for the 'checklimitdest' option.


Time for EDB Visiting: CPU = 334 us, elapsed = 334.024 us.
Time accumulated: CPU = 116.363 ms, elapsed = 314.767 ms.
Peak resident memory used = 154 Mbytes.


Warning from spectre during initial setup.
    WARNING (CMI-2419): p18.8: `imax' = 1 A is larger than `imelt' = 1.416 mA. 
        `imelt' is increased to `imax'.


Global user options:
       xmult_in_exp = yes
         psfversion = 1.4.0
            vabstol = 1e-06
            iabstol = 1e-12
               temp = 27
               gmin = 1e-12
             rforce = 1
           maxnotes = 5
           maxwarns = 5
             digits = 5
               cols = 80
             pivrel = 0.001
           sensfile = ../psf/sens.output
     checklimitdest = psf
               save = allpub
             reltol = 0.001
               tnom = 27
             scalem = 1
              scale = 1e-06

Scoped user options:

Circuit inventory:
              nodes 3
            bsim3v3 2     
            isource 1     
            vsource 2     

Analysis and control statement inventory:
                 dc 2     
               info 7     

Output statements:
             .probe 0     
           .measure 0     
               save 0     


Notice from spectre.
    4 warnings suppressed.

Time for parsing: CPU = 1.19 ms, elapsed = 9.54795 ms.
Time accumulated: CPU = 117.601 ms, elapsed = 324.362 ms.
Peak resident memory used = 158 Mbytes.

~~~~~~~~~~~~~~~~~~~~~~
Pre-Simulation Summary
~~~~~~~~~~~~~~~~~~~~~~
~~~~~~~~~~~~~~~~~~~~~~

******************
DC Analysis `dcOp'
******************

Opening the PSF file
        /home/cmos/simulation/column_isource_tb/spectre/schematic/netlist/input.raw/dcOp.dc
        ...
Important parameter values:
    reltol = 1e-03
    abstol(V) = 1 uV
    abstol(I) = 1 pA
    temp = 27 C
    tnom = 27 C
    tempeffects = all
    gmindc = 1 pS

Maximum value achieved for any signal of each quantity: 
V: V(net1) = 1.8 V
I: I(V0:p) = 2.017 uA
Convergence achieved in 9 iterations.
DC simulation time: CPU = 914 us, elapsed = 1.53208 ms.
Total time required for dc analysis `dcOp': CPU = 941 us, elapsed = 1.55687 ms,
        util. = 60.4%.
Time accumulated: CPU = 121.296 ms, elapsed = 328.68 ms.
Peak resident memory used = 160 Mbytes.

dcOpInfo: writing operating point information to rawfile.

Opening the PSF file
        /home/cmos/simulation/column_isource_tb/spectre/schematic/netlist/input.raw/dcOpInfo.info
        ...

******************************************
DC Analysis `dc': V0:dc = (1.6 V -> 1.9 V)
******************************************

Opening the PSF file
        /home/cmos/simulation/column_isource_tb/spectre/schematic/netlist/input.raw/dc.dc
        ...
Important parameter values:
    reltol = 1e-03
    abstol(V) = 1 uV
    abstol(I) = 1 pA
    temp = 27 C
    tnom = 27 C
    tempeffects = all
    gmindc = 1 pS
    dc: dc = 1.61 V      (3.33 %), step = 10 mV        (3.33 %)
    dc: dc = 1.62 V      (6.67 %), step = 10 mV        (3.33 %)
    dc: dc = 1.63 V        (10 %), step = 10 mV        (3.33 %)
    dc: dc = 1.64 V      (13.3 %), step = 10 mV        (3.33 %)
    dc: dc = 1.65 V      (16.7 %), step = 10 mV        (3.33 %)
    dc: dc = 1.66 V        (20 %), step = 10 mV        (3.33 %)
    dc: dc = 1.67 V      (23.3 %), step = 10 mV        (3.33 %)
    dc: dc = 1.68 V      (26.7 %), step = 10 mV        (3.33 %)
    dc: dc = 1.69 V        (30 %), step = 10 mV        (3.33 %)
    dc: dc = 1.7 V       (33.3 %), step = 10 mV        (3.33 %)
    dc: dc = 1.71 V      (36.7 %), step = 10 mV        (3.33 %)
    dc: dc = 1.72 V        (40 %), step = 10 mV        (3.33 %)
    dc: dc = 1.73 V      (43.3 %), step = 10 mV        (3.33 %)
    dc: dc = 1.74 V      (46.7 %), step = 10 mV        (3.33 %)
    dc: dc = 1.75 V        (50 %), step = 10 mV        (3.33 %)
    dc: dc = 1.76 V      (53.3 %), step = 10 mV        (3.33 %)
    dc: dc = 1.77 V      (56.7 %), step = 10 mV        (3.33 %)
    dc: dc = 1.78 V        (60 %), step = 10 mV        (3.33 %)
    dc: dc = 1.79 V      (63.3 %), step = 10 mV        (3.33 %)
    dc: dc = 1.8 V       (66.7 %), step = 10 mV        (3.33 %)
    dc: dc = 1.81 V        (70 %), step = 10 mV        (3.33 %)
    dc: dc = 1.82 V      (73.3 %), step = 10 mV        (3.33 %)
    dc: dc = 1.83 V      (76.7 %), step = 10 mV        (3.33 %)
    dc: dc = 1.84 V        (80 %), step = 10 mV        (3.33 %)
    dc: dc = 1.85 V      (83.3 %), step = 10 mV        (3.33 %)
    dc: dc = 1.86 V      (86.7 %), step = 10 mV        (3.33 %)
    dc: dc = 1.87 V        (90 %), step = 10 mV        (3.33 %)
    dc: dc = 1.88 V      (93.3 %), step = 10 mV        (3.33 %)
    dc: dc = 1.89 V      (96.7 %), step = 10 mV        (3.33 %)
    dc: dc = 1.9 V        (100 %), step = 10 mV        (3.33 %)

Maximum value achieved for any signal of each quantity: 
V: V(net1) = 1.9 V
I: I(V0:p) = 2.02 uA
DC simulation time: CPU = 1.803 ms, elapsed = 2.41899 ms.

Notice from spectre at dc = 1.9 V during DC analysis `dc'.
    The value of parameter 'dc' has been reset to the original value 1.8.

Total time required for dc analysis `dc': CPU = 1.82 ms, elapsed = 2.43592 ms,
        util. = 74.7%.
Time accumulated: CPU = 124.232 ms, elapsed = 332.82 ms.
Peak resident memory used = 161 Mbytes.

modelParameter: writing model parameter values to rawfile.

Opening the PSF file
        /home/cmos/simulation/column_isource_tb/spectre/schematic/netlist/input.raw/modelParameter.info
        ...
element: writing instance parameter values to rawfile.

Opening the PSF file
        /home/cmos/simulation/column_isource_tb/spectre/schematic/netlist/input.raw/element.info
        ...
outputParameter: writing output parameter values to rawfile.

Opening the PSF file
        /home/cmos/simulation/column_isource_tb/spectre/schematic/netlist/input.raw/outputParameter.info
        ...
designParamVals: writing netlist parameters to rawfile.

Opening the PSFASCII file
        /home/cmos/simulation/column_isource_tb/spectre/schematic/netlist/input.raw/designParamVals.info
        ...
primitives: writing primitives to rawfile.

Opening the PSFASCII file
        /home/cmos/simulation/column_isource_tb/spectre/schematic/netlist/input.raw/primitives.info.primitives
        ...
subckts: writing subcircuits to rawfile.

Opening the PSFASCII file
        /home/cmos/simulation/column_isource_tb/spectre/schematic/netlist/input.raw/subckts.info.subckts
        ...
Licensing Information:
Lic Summary:
[10:53:58.370098] Cdslmd servers:5280@10.3.32.9
[10:53:58.370112] Feature usage summary:
[10:53:58.370113] Virtuoso_Multi_mode_Simulation


Aggregate audit (10:53:58 AM, Fri Apr 24, 2026):
Time used: CPU = 134 ms, elapsed = 348 ms, util. = 38.4%.
Time spent in licensing: elapsed = 213 ms, percentage of total = 61.3%.
Peak memory used = 162 Mbytes.
Simulation started at: 10:53:58 AM, Fri Apr 24, 2026, ended at: 10:53:58 AM,
        Fri Apr 24, 2026, with elapsed time (wall clock): 348 ms.
spectre completes with 0 errors, 8 warnings, and 4 notices.
